Version 4
SHEET 1 880 680
WIRE -80 144 -80 96
WIRE 144 144 144 96
WIRE 320 144 320 96
WIRE 528 144 528 96
WIRE -80 272 -80 208
WIRE 144 272 144 208
WIRE 320 272 320 208
WIRE 528 272 528 208
WIRE -80 320 -80 272
WIRE 144 320 144 272
WIRE 320 320 320 272
WIRE 528 320 528 272
WIRE -80 448 -80 384
WIRE 144 448 144 384
WIRE 320 448 320 384
WIRE 528 448 528 384
FLAG 144 96 B1
IOPIN 144 96 BiDir
FLAG 320 96 D1
IOPIN 320 96 BiDir
FLAG 144 272 C2
IOPIN 144 272 BiDir
FLAG 320 272 C3
IOPIN 320 272 BiDir
FLAG 144 448 B2
IOPIN 144 448 BiDir
FLAG 320 448 D2
IOPIN 320 448 BiDir
FLAG 528 96 E1
IOPIN 528 96 BiDir
FLAG 528 272 C4
IOPIN 528 272 BiDir
FLAG 528 448 E2
IOPIN 528 448 BiDir
FLAG -80 96 A1
IOPIN -80 96 BiDir
FLAG -80 272 C1
IOPIN -80 272 BiDir
FLAG -80 448 A2
IOPIN -80 448 BiDir
SYMBOL 1PST -80 176 R90
WINDOW 39 -8 -42 Bottom 2
SYMATTR InstName X9
SYMATTR SpiceLine V_SPST = {POS}
SYMBOL 1PST 144 176 R90
WINDOW 39 -12 -60 Bottom 2
SYMATTR InstName X10
SYMATTR SpiceLine V_SPST = {POS}
SYMBOL 1PST 320 176 R90
WINDOW 39 -15 -64 Bottom 2
SYMATTR InstName X11
SYMATTR SpiceLine V_SPST = {POS}
SYMBOL 1PST 528 176 R90
WINDOW 39 -24 -57 Bottom 2
SYMATTR InstName X12
SYMATTR SpiceLine V_SPST = {POS}
SYMBOL 1PST 528 352 R90
WINDOW 39 17 51 Bottom 2
SYMATTR InstName X13
SYMATTR SpiceLine V_SPST = {POS*POS-POS}
SYMBOL 1PST 320 352 R90
WINDOW 39 13 56 Bottom 2
SYMATTR InstName X14
SYMATTR SpiceLine V_SPST = {POS*POS-POS}
SYMBOL 1PST 144 352 R90
WINDOW 39 22 56 Bottom 2
SYMATTR InstName X15
SYMATTR SpiceLine V_SPST = {POS*POS-POS}
SYMBOL 1PST -80 352 R90
WINDOW 39 20 73 Bottom 2
SYMATTR InstName X16
SYMATTR SpiceLine V_SPST = {POS*POS-POS}
TEXT 160 -48 Left 2 !.param POS=-1
