Version 4
SHEET 1 1060 1428
WIRE 256 64 160 64
WIRE 192 176 160 176
WIRE 256 176 256 64
WIRE 192 288 160 288
WIRE 256 288 256 176
WIRE 192 400 160 400
WIRE 256 400 256 288
WIRE 192 512 160 512
WIRE 256 512 256 400
WIRE 192 624 160 624
WIRE 256 624 256 512
FLAG 160 176 1
IOPIN 160 176 In
FLAG 160 288 2
IOPIN 160 288 In
FLAG 160 400 3
IOPIN 160 400 In
FLAG 160 512 4
IOPIN 160 512 In
FLAG 160 624 5
IOPIN 160 624 In
FLAG 160 64 C
IOPIN 160 64 Out
SYMBOL 1PST 224 176 R0
WINDOW 39 145 7 Bottom 2
SYMATTR InstName X6
SYMATTR SpiceLine V_SPST=V1
SYMBOL 1PST 224 288 R0
WINDOW 39 144 8 Bottom 2
SYMATTR InstName X7
SYMATTR SpiceLine V_SPST=V2
SYMBOL 1PST 224 400 R0
WINDOW 39 140 9 Bottom 2
SYMATTR InstName X8
SYMATTR SpiceLine V_SPST=V3
SYMBOL 1PST 224 512 R0
WINDOW 39 141 4 Bottom 2
SYMATTR InstName X9
SYMATTR SpiceLine V_SPST=V4
SYMBOL 1PST 224 624 R0
WINDOW 39 131 -4 Bottom 2
SYMATTR InstName X10
SYMATTR SpiceLine V_SPST=V5
TEXT -288 -8 Left 2 !.param V_CTRL={POS}\n.param V1={(V_CTRL==1)*1}\n.param V2={(V_CTRL==2)*1}\n.param V3={(V_CTRL==3)*1}\n.param V4={(V_CTRL==4)*1}\n.param V5={(V_CTRL==5)*1}
