Version 4
SHEET 1 1164 1432
WIRE 448 96 352 96
WIRE 944 96 848 96
WIRE 384 208 352 208
WIRE 448 208 448 96
WIRE 880 208 848 208
WIRE 944 208 944 96
WIRE 384 320 352 320
WIRE 448 320 448 208
WIRE 880 320 848 320
WIRE 944 320 944 208
WIRE 384 432 352 432
WIRE 448 432 448 320
WIRE 880 432 848 432
WIRE 944 432 944 320
WIRE 384 544 352 544
WIRE 448 544 448 432
WIRE 880 544 848 544
WIRE 944 544 944 432
WIRE 384 656 352 656
WIRE 448 656 448 544
WIRE 880 656 848 656
WIRE 944 656 944 544
WIRE 432 800 336 800
WIRE 928 800 832 800
WIRE 368 912 336 912
WIRE 432 912 432 800
WIRE 864 912 832 912
WIRE 928 912 928 800
WIRE 368 1024 336 1024
WIRE 432 1024 432 912
WIRE 864 1024 832 1024
WIRE 928 1024 928 912
WIRE 368 1136 336 1136
WIRE 432 1136 432 1024
WIRE 864 1136 832 1136
WIRE 928 1136 928 1024
WIRE 368 1248 336 1248
WIRE 432 1248 432 1136
WIRE 864 1248 832 1248
WIRE 928 1248 928 1136
WIRE 368 1360 336 1360
WIRE 432 1360 432 1248
WIRE 864 1360 832 1360
WIRE 928 1360 928 1248
FLAG 352 208 A1
IOPIN 352 208 In
FLAG 352 320 A2
IOPIN 352 320 In
FLAG 352 432 A3
IOPIN 352 432 In
FLAG 352 544 A4
IOPIN 352 544 In
FLAG 352 656 A5
IOPIN 352 656 In
FLAG 352 96 C_A
IOPIN 352 96 Out
FLAG 336 912 Y1
IOPIN 336 912 In
FLAG 336 1024 Y2
IOPIN 336 1024 In
FLAG 336 1136 Y3
IOPIN 336 1136 In
FLAG 336 1248 Y4
IOPIN 336 1248 In
FLAG 336 1360 Y5
IOPIN 336 1360 In
FLAG 336 800 C_Y
IOPIN 336 800 Out
FLAG 848 208 B1
IOPIN 848 208 In
FLAG 848 320 B2
IOPIN 848 320 In
FLAG 848 432 B3
IOPIN 848 432 In
FLAG 848 544 B4
IOPIN 848 544 In
FLAG 848 656 B5
IOPIN 848 656 In
FLAG 848 96 C_B
IOPIN 848 96 Out
FLAG 832 912 Z1
IOPIN 832 912 In
FLAG 832 1024 Z2
IOPIN 832 1024 In
FLAG 832 1136 Z3
IOPIN 832 1136 In
FLAG 832 1248 Z4
IOPIN 832 1248 In
FLAG 832 1360 Z5
IOPIN 832 1360 In
FLAG 832 800 C_Z
IOPIN 832 800 Out
SYMBOL 1PST 416 208 R0
WINDOW 39 120 10 Bottom 2
SYMATTR InstName X21
SYMATTR SpiceLine V_SPST=V1
SYMBOL 1PST 416 320 R0
WINDOW 39 104 2 Bottom 2
SYMATTR InstName X22
SYMATTR SpiceLine V_SPST=V2
SYMBOL 1PST 416 432 R0
WINDOW 39 129 13 Bottom 2
SYMATTR InstName X23
SYMATTR SpiceLine V_SPST=V3
SYMBOL 1PST 416 544 R0
WINDOW 39 109 8 Bottom 2
SYMATTR InstName X24
SYMATTR SpiceLine V_SPST=V4
SYMBOL 1PST 416 656 R0
WINDOW 39 121 0 Bottom 2
SYMATTR InstName X25
SYMATTR SpiceLine V_SPST=V5
SYMBOL 1PST 912 208 R0
WINDOW 39 120 10 Bottom 2
SYMATTR InstName X31
SYMATTR SpiceLine V_SPST=V1
SYMBOL 1PST 912 320 R0
WINDOW 39 104 2 Bottom 2
SYMATTR InstName X32
SYMATTR SpiceLine V_SPST=V2
SYMBOL 1PST 912 432 R0
WINDOW 39 129 13 Bottom 2
SYMATTR InstName X33
SYMATTR SpiceLine V_SPST=V3
SYMBOL 1PST 912 544 R0
WINDOW 39 109 8 Bottom 2
SYMATTR InstName X34
SYMATTR SpiceLine V_SPST=V4
SYMBOL 1PST 912 656 R0
WINDOW 39 121 0 Bottom 2
SYMATTR InstName X35
SYMATTR SpiceLine V_SPST=V5
SYMBOL 1PST 400 912 R0
WINDOW 39 120 10 Bottom 2
SYMATTR InstName X36
SYMATTR SpiceLine V_SPST=V1
SYMBOL 1PST 400 1024 R0
WINDOW 39 104 2 Bottom 2
SYMATTR InstName X37
SYMATTR SpiceLine V_SPST=V2
SYMBOL 1PST 400 1136 R0
WINDOW 39 129 13 Bottom 2
SYMATTR InstName X38
SYMATTR SpiceLine V_SPST=V3
SYMBOL 1PST 400 1248 R0
WINDOW 39 109 8 Bottom 2
SYMATTR InstName X39
SYMATTR SpiceLine V_SPST=V4
SYMBOL 1PST 400 1360 R0
WINDOW 39 121 0 Bottom 2
SYMATTR InstName X40
SYMATTR SpiceLine V_SPST=V5
SYMBOL 1PST 896 912 R0
WINDOW 39 120 10 Bottom 2
SYMATTR InstName X41
SYMATTR SpiceLine V_SPST=V1
SYMBOL 1PST 896 1024 R0
WINDOW 39 104 2 Bottom 2
SYMATTR InstName X42
SYMATTR SpiceLine V_SPST=V2
SYMBOL 1PST 896 1136 R0
WINDOW 39 129 13 Bottom 2
SYMATTR InstName X43
SYMATTR SpiceLine V_SPST=V3
SYMBOL 1PST 896 1248 R0
WINDOW 39 109 8 Bottom 2
SYMATTR InstName X44
SYMATTR SpiceLine V_SPST=V4
SYMBOL 1PST 896 1360 R0
WINDOW 39 121 0 Bottom 2
SYMATTR InstName X45
SYMATTR SpiceLine V_SPST=V5
TEXT -96 24 Left 2 !.param V_CTRL={POS}\n.param V1={(V_CTRL==1)*1}\n.param V2={(V_CTRL==2)*1}\n.param V3={(V_CTRL==3)*1}\n.param V4={(V_CTRL==4)*1}\n.param V5={(V_CTRL==5)*1}
