Version 4
SHEET 1 3968 5804
WIRE 1264 -288 -144 -288
WIRE 512 -224 -384 -224
WIRE 48 -64 -352 -64
WIRE -704 -32 -880 -32
WIRE -304 -32 -624 -32
WIRE 768 -16 -64 -16
WIRE -880 32 -880 -32
WIRE 608 48 -208 48
WIRE 1264 64 1264 -288
WIRE 1264 64 640 64
WIRE -352 112 -352 -64
WIRE -352 112 -880 112
WIRE -688 176 -880 176
WIRE -432 176 -608 176
WIRE 768 192 768 -16
WIRE 1152 192 768 192
WIRE -208 208 -208 48
WIRE -64 208 -64 -16
WIRE -32 240 -64 240
WIRE -384 256 -384 -224
WIRE -384 256 -880 256
WIRE 1232 256 928 256
WIRE -64 272 -128 272
WIRE -32 272 -32 240
WIRE -32 272 -64 272
WIRE 272 272 192 272
WIRE 448 272 352 272
WIRE 896 272 768 272
WIRE 192 288 192 272
WIRE 272 288 272 272
WIRE 352 288 352 272
WIRE 512 288 512 -224
WIRE 528 288 512 288
WIRE 560 288 528 288
WIRE 608 288 608 48
WIRE 640 288 640 64
WIRE 640 288 608 288
WIRE 688 288 656 288
WIRE 768 288 768 272
WIRE 848 288 768 288
WIRE -304 304 -304 -32
WIRE -208 304 -304 304
WIRE -128 304 -128 272
WIRE -64 304 -128 304
WIRE 0 304 -64 304
WIRE 112 304 112 288
WIRE 192 304 192 288
WIRE 192 304 112 304
WIRE 272 304 272 288
WIRE 352 304 352 288
WIRE 352 304 272 304
WIRE -208 320 -208 304
WIRE -208 320 -224 320
WIRE 928 320 928 256
WIRE 992 320 928 320
WIRE 1056 320 1024 320
WIRE 1200 320 1056 320
WIRE 1232 320 1232 256
WIRE 1264 320 1264 64
WIRE 1264 320 1232 320
WIRE 1392 320 1264 320
WIRE -224 336 -224 320
WIRE -208 336 -224 336
WIRE 688 336 688 288
WIRE 912 336 688 336
WIRE -208 352 -208 336
WIRE -208 352 -240 352
WIRE 992 352 992 320
WIRE 1040 352 992 352
WIRE -688 368 -880 368
WIRE -336 368 -608 368
WIRE -240 368 -240 352
WIRE -208 368 -240 368
WIRE 48 368 48 -64
WIRE 112 368 48 368
WIRE 272 368 240 368
WIRE 352 368 336 368
WIRE 640 368 608 368
WIRE 912 368 912 336
WIRE 992 368 912 368
WIRE 1152 368 1152 192
WIRE 1152 368 1056 368
WIRE -880 400 -880 368
WIRE 528 400 528 368
WIRE 528 400 464 400
WIRE 1200 400 1200 320
WIRE 1264 400 1200 400
WIRE 1392 400 1264 400
WIRE 688 416 688 368
WIRE 688 416 272 416
WIRE 1024 416 1024 320
WIRE 1024 416 992 416
WIRE 1040 416 1040 352
WIRE 1056 416 1040 416
WIRE -144 432 -144 -288
WIRE -144 432 -208 432
WIRE 192 432 192 368
WIRE 192 432 -64 432
WIRE 768 432 768 368
WIRE 768 432 352 432
WIRE 272 448 272 416
WIRE 352 448 352 432
WIRE 528 464 528 448
WIRE 608 464 608 448
WIRE 608 464 528 464
WIRE 688 464 688 448
WIRE 768 464 768 448
WIRE 768 464 688 464
WIRE -464 480 -880 480
WIRE -336 496 -336 368
WIRE -208 496 -336 496
WIRE -176 496 -208 496
WIRE -32 528 -64 528
WIRE 0 544 0 304
WIRE 48 544 0 544
WIRE 112 544 112 448
WIRE 464 544 464 400
WIRE 464 544 112 544
WIRE -176 560 -176 496
WIRE -176 560 -208 560
WIRE -64 560 -112 560
WIRE -32 560 -32 528
WIRE -32 560 -64 560
WIRE 448 576 448 272
WIRE 992 576 992 416
WIRE 992 576 448 576
WIRE -688 592 -880 592
WIRE -288 592 -608 592
WIRE -112 592 -112 560
WIRE -64 592 -112 592
WIRE 16 592 -64 592
WIRE 192 608 192 448
WIRE 640 608 640 368
WIRE 640 608 192 608
WIRE -880 640 -880 592
WIRE 48 656 48 544
WIRE 848 656 848 288
WIRE 848 656 48 656
WIRE -432 688 -432 176
WIRE 16 688 16 592
WIRE 16 688 -432 688
WIRE 240 720 240 368
WIRE 240 720 -880 720
WIRE -688 816 -880 816
WIRE 336 816 336 368
WIRE 336 816 -608 816
WIRE 656 896 656 288
WIRE 656 896 -880 896
WIRE -288 944 -288 592
WIRE 896 944 896 272
WIRE 896 944 -288 944
WIRE 560 976 560 288
WIRE 1264 976 1264 400
WIRE 1264 976 560 976
WIRE -464 1040 -464 480
WIRE 1264 1040 1264 976
WIRE 1264 1040 -464 1040
WIRE -336 1680 -480 1680
WIRE -128 1680 -240 1680
WIRE 1936 1680 -64 1680
WIRE -240 1776 -240 1680
WIRE 1280 1888 -128 1888
WIRE 528 1952 -368 1952
WIRE 64 2112 -336 2112
WIRE -800 2144 -864 2144
WIRE -688 2144 -720 2144
WIRE -592 2144 -608 2144
WIRE -480 2144 -480 1680
WIRE -480 2144 -592 2144
WIRE -288 2144 -480 2144
WIRE 784 2160 -48 2160
WIRE -864 2208 -864 2144
WIRE 624 2224 -192 2224
WIRE 1280 2240 1280 1888
WIRE 1280 2240 656 2240
WIRE 1584 2240 1280 2240
WIRE -592 2288 -592 2208
WIRE -592 2288 -864 2288
WIRE -336 2288 -336 2112
WIRE -336 2288 -592 2288
WIRE 2080 2320 1680 2320
WIRE -784 2352 -864 2352
WIRE -672 2352 -704 2352
WIRE -416 2352 -592 2352
WIRE 784 2368 784 2160
WIRE 1280 2368 1280 2240
WIRE 1280 2368 784 2368
WIRE -192 2384 -192 2224
WIRE -48 2384 -48 2160
WIRE -16 2416 -48 2416
WIRE 1584 2416 1584 2240
WIRE -592 2432 -592 2416
WIRE -592 2432 -864 2432
WIRE -368 2432 -368 1952
WIRE -368 2432 -592 2432
WIRE 1248 2432 944 2432
WIRE -48 2448 -112 2448
WIRE -16 2448 -16 2416
WIRE -16 2448 -48 2448
WIRE 288 2448 208 2448
WIRE 464 2448 368 2448
WIRE 912 2448 784 2448
WIRE 208 2464 208 2448
WIRE 288 2464 288 2448
WIRE 368 2464 368 2448
WIRE 528 2464 528 1952
WIRE 544 2464 528 2464
WIRE 576 2464 544 2464
WIRE 624 2464 624 2224
WIRE 656 2464 656 2240
WIRE 656 2464 624 2464
WIRE 704 2464 672 2464
WIRE 784 2464 784 2448
WIRE 864 2464 784 2464
WIRE -288 2480 -288 2144
WIRE -192 2480 -288 2480
WIRE -112 2480 -112 2448
WIRE -48 2480 -112 2480
WIRE 16 2480 -48 2480
WIRE 128 2480 128 2464
WIRE 208 2480 208 2464
WIRE 208 2480 128 2480
WIRE 288 2480 288 2464
WIRE 368 2480 368 2464
WIRE 368 2480 288 2480
WIRE -192 2496 -192 2480
WIRE -192 2496 -208 2496
WIRE 944 2496 944 2432
WIRE 1008 2496 944 2496
WIRE 1072 2496 1040 2496
WIRE 1216 2496 1072 2496
WIRE 1248 2496 1248 2432
WIRE 1472 2496 1248 2496
WIRE 2080 2496 2080 2320
WIRE 2176 2496 2080 2496
WIRE 2208 2496 2176 2496
WIRE -208 2512 -208 2496
WIRE -192 2512 -208 2512
WIRE 704 2512 704 2464
WIRE 928 2512 704 2512
WIRE -192 2528 -192 2512
WIRE -192 2528 -224 2528
WIRE 1008 2528 1008 2496
WIRE 1056 2528 1008 2528
WIRE -768 2544 -864 2544
WIRE -672 2544 -688 2544
WIRE -576 2544 -592 2544
WIRE -320 2544 -576 2544
WIRE -224 2544 -224 2528
WIRE -192 2544 -224 2544
WIRE 64 2544 64 2112
WIRE 128 2544 64 2544
WIRE 288 2544 256 2544
WIRE 368 2544 352 2544
WIRE 656 2544 624 2544
WIRE 928 2544 928 2512
WIRE 1008 2544 928 2544
WIRE 1136 2544 1072 2544
WIRE -864 2576 -864 2544
WIRE 544 2576 544 2544
WIRE 544 2576 480 2576
WIRE 1216 2576 1216 2496
WIRE 1280 2576 1216 2576
WIRE 1776 2576 1776 2416
WIRE 2080 2576 1776 2576
WIRE 2176 2576 2176 2560
WIRE 2176 2576 2080 2576
WIRE 2208 2576 2176 2576
WIRE 704 2592 704 2544
WIRE 704 2592 288 2592
WIRE 1040 2592 1040 2496
WIRE 1040 2592 1008 2592
WIRE 1056 2592 1056 2528
WIRE 1072 2592 1056 2592
WIRE -128 2608 -128 1888
WIRE -128 2608 -192 2608
WIRE 208 2608 208 2544
WIRE 208 2608 -48 2608
WIRE 784 2608 784 2544
WIRE 784 2608 368 2608
WIRE 288 2624 288 2592
WIRE 368 2624 368 2608
WIRE 544 2640 544 2624
WIRE 624 2640 624 2624
WIRE 624 2640 544 2640
WIRE 704 2640 704 2624
WIRE 784 2640 784 2624
WIRE 784 2640 704 2640
WIRE -576 2656 -576 2608
WIRE -576 2656 -864 2656
WIRE -448 2656 -576 2656
WIRE -320 2672 -320 2544
WIRE -192 2672 -320 2672
WIRE -160 2672 -192 2672
WIRE -16 2704 -48 2704
WIRE 864 2704 864 2464
WIRE 1136 2704 1136 2544
WIRE 1136 2704 864 2704
WIRE 16 2720 16 2480
WIRE 64 2720 16 2720
WIRE 128 2720 128 2624
WIRE 480 2720 480 2576
WIRE 480 2720 128 2720
WIRE -160 2736 -160 2672
WIRE -160 2736 -192 2736
WIRE -48 2736 -96 2736
WIRE -16 2736 -16 2704
WIRE -16 2736 -48 2736
WIRE 464 2752 464 2448
WIRE 1008 2752 1008 2592
WIRE 1008 2752 464 2752
WIRE -784 2768 -864 2768
WIRE -672 2768 -704 2768
WIRE -576 2768 -592 2768
WIRE -272 2768 -576 2768
WIRE -96 2768 -96 2736
WIRE -48 2768 -96 2768
WIRE 32 2768 -48 2768
WIRE 1936 2768 1936 1680
WIRE 2080 2768 2080 2576
WIRE 2080 2768 1936 2768
WIRE 208 2784 208 2624
WIRE 656 2784 656 2544
WIRE 656 2784 208 2784
WIRE -864 2816 -864 2768
WIRE 64 2832 64 2720
WIRE 1456 2832 64 2832
WIRE 1472 2832 1472 2496
WIRE 1472 2832 1456 2832
WIRE -416 2864 -416 2352
WIRE 32 2864 32 2768
WIRE 32 2864 -416 2864
WIRE -576 2896 -576 2832
WIRE -576 2896 -864 2896
WIRE 256 2896 256 2544
WIRE 256 2896 -576 2896
WIRE -768 2992 -864 2992
WIRE -672 2992 -688 2992
WIRE -576 2992 -592 2992
WIRE 352 2992 352 2544
WIRE 352 2992 -576 2992
WIRE -576 3072 -576 3056
WIRE -576 3072 -864 3072
WIRE 672 3072 672 2464
WIRE 672 3072 -576 3072
WIRE -272 3120 -272 2768
WIRE 912 3120 912 2448
WIRE 912 3120 -272 3120
WIRE 576 3152 576 2464
WIRE 1280 3152 1280 2576
WIRE 1280 3152 576 3152
WIRE 2080 3152 2080 2768
WIRE 2080 3152 1280 3152
WIRE -448 3216 -448 2656
WIRE 1280 3216 1280 3152
WIRE 1280 3216 -448 3216
WIRE 1456 3344 1456 2832
WIRE 1456 3344 -80 3344
WIRE -80 3520 -80 3344
WIRE 48 3520 -80 3520
WIRE 256 3520 144 3520
WIRE 2080 3520 2080 3152
WIRE 2080 3520 320 3520
WIRE 144 3616 144 3520
WIRE 1280 3968 1216 3968
WIRE 1392 3968 1360 3968
WIRE 1488 3968 1472 3968
WIRE 2256 3968 1488 3968
WIRE 0 3984 -64 3984
WIRE 112 3984 80 3984
WIRE 208 3984 192 3984
WIRE 976 3984 208 3984
WIRE 1216 4032 1216 3968
WIRE -64 4048 -64 3984
WIRE 1488 4096 1488 4032
WIRE 1808 4096 1488 4096
WIRE 208 4112 208 4048
WIRE 528 4112 208 4112
WIRE 1488 4112 1488 4096
WIRE 1488 4112 1216 4112
WIRE 208 4128 208 4112
WIRE 208 4128 -64 4128
WIRE 2256 4160 2256 3968
WIRE 2448 4160 2256 4160
WIRE 976 4176 976 3984
WIRE 1168 4176 976 4176
WIRE 2448 4240 2256 4240
WIRE 1168 4256 976 4256
WIRE 1280 4336 1200 4336
WIRE 1392 4336 1360 4336
WIRE 1488 4336 1472 4336
WIRE 2256 4336 2256 4240
WIRE 2256 4336 1488 4336
WIRE 0 4352 -80 4352
WIRE 112 4352 80 4352
WIRE 208 4352 192 4352
WIRE 528 4352 528 4112
WIRE 528 4352 208 4352
WIRE 1200 4384 1200 4336
WIRE -80 4400 -80 4352
WIRE 1488 4464 1488 4400
WIRE 1488 4464 1200 4464
WIRE 1808 4464 1808 4096
WIRE 1808 4464 1488 4464
WIRE 208 4480 208 4416
WIRE 208 4480 -80 4480
WIRE 976 4480 976 4256
WIRE 976 4480 208 4480
WIRE 1296 4608 1232 4608
WIRE 1408 4608 1376 4608
WIRE 1504 4608 1488 4608
WIRE 1952 4608 1504 4608
WIRE 2272 4608 1952 4608
WIRE -16 4624 -80 4624
WIRE 96 4624 64 4624
WIRE 192 4624 176 4624
WIRE 512 4624 192 4624
WIRE 960 4624 512 4624
WIRE 1232 4672 1232 4608
WIRE -80 4688 -80 4624
WIRE 1504 4736 1504 4672
WIRE 1728 4736 1504 4736
WIRE 192 4752 192 4688
WIRE 416 4752 192 4752
WIRE 1504 4752 1504 4736
WIRE 1504 4752 1232 4752
WIRE 192 4768 192 4752
WIRE 192 4768 -80 4768
WIRE 2272 4800 2272 4608
WIRE 2464 4800 2272 4800
WIRE 960 4816 960 4624
WIRE 1152 4816 960 4816
WIRE 2464 4880 2272 4880
WIRE 1152 4896 960 4896
WIRE 1296 4976 1216 4976
WIRE 1408 4976 1376 4976
WIRE 1504 4976 1488 4976
WIRE 1728 4976 1728 4736
WIRE 1728 4976 1504 4976
WIRE 2272 4976 2272 4880
WIRE 2272 4976 1728 4976
WIRE -16 4992 -96 4992
WIRE 96 4992 64 4992
WIRE 192 4992 176 4992
WIRE 512 4992 512 4624
WIRE 512 4992 192 4992
WIRE 1216 5024 1216 4976
WIRE -96 5040 -96 4992
WIRE 1504 5104 1504 5040
WIRE 1504 5104 1216 5104
WIRE 1952 5104 1952 4608
WIRE 1952 5104 1504 5104
WIRE 192 5120 192 5056
WIRE 192 5120 -96 5120
WIRE 416 5120 416 4752
WIRE 416 5120 192 5120
WIRE 960 5120 960 4896
WIRE 960 5120 416 5120
FLAG 1392 400 0
FLAG 1392 320 Exp1
IOPIN 1392 320 Out
FLAG 2208 2576 0
FLAG 2208 2496 Exp2
IOPIN 2208 2496 Out
FLAG 1152 4816 Par
IOPIN 1152 4816 Out
FLAG 1152 4896 0
FLAG 1168 4176 Ser
IOPIN 1168 4176 Out
FLAG 1168 4256 0
FLAG 2464 4800 outPar
IOPIN 2464 4800 Out
FLAG 2464 4880 0
FLAG 2448 4160 outSer
IOPIN 2448 4160 Out
FLAG 2448 4240 0
SYMBOL res 1248 304 R0
SYMATTR InstName R1
SYMATTR Value 1Meg
SYMBOL res -608 -48 R90
WINDOW 0 0 56 VBottom 2
WINDOW 3 32 56 VTop 2
SYMATTR InstName R3
SYMATTR Value 8k
SYMBOL res -592 352 R90
WINDOW 0 0 56 VBottom 2
WINDOW 3 32 56 VTop 2
SYMATTR InstName R5
SYMATTR Value 8k
SYMBOL res -592 576 R90
WINDOW 0 0 56 VBottom 2
WINDOW 3 32 56 VTop 2
SYMATTR InstName R6
SYMATTR Value 8k
SYMBOL res -592 800 R90
WINDOW 0 0 56 VBottom 2
WINDOW 3 32 56 VTop 2
SYMATTR InstName R7
SYMATTR Value 8k
SYMBOL res -592 160 R90
WINDOW 0 0 56 VBottom 2
WINDOW 3 32 56 VTop 2
SYMATTR InstName R4
SYMATTR Value 8k
SYMBOL 5_way_SuperSwitch -144 384 R0
WINDOW 39 -106 -456 Bottom 2
SYMATTR SpiceLine POS=Switch_Pos
SYMATTR InstName X1
SYMBOL 4PDT_OnOn 240 368 R0
WINDOW 39 2 -432 Bottom 2
SYMATTR SpiceLine POS=SPLIT_POS
SYMATTR InstName X2
SYMBOL 4PDT_OnOn 656 368 R0
WINDOW 39 0 -423 Bottom 2
SYMATTR SpiceLine POS=SERPAR_POS
SYMATTR InstName X3
SYMBOL 2pdt_onon 1024 368 R0
WINDOW 39 -7 -407 Bottom 2
SYMATTR SpiceLine POS=PHASE_POS
SYMATTR InstName X4
SYMBOL voltage -880 16 R0
WINDOW 123 24 124 Left 2
WINDOW 39 0 0 Left 0
SYMATTR Value2 AC 22
SYMATTR InstName V6
SYMATTR Value ""
SYMBOL voltage -880 160 R0
WINDOW 123 24 124 Left 2
WINDOW 39 0 0 Left 0
SYMATTR Value2 AC 77
SYMATTR InstName V7
SYMATTR Value ""
SYMBOL voltage -880 384 R0
WINDOW 123 24 124 Left 2
WINDOW 39 0 0 Left 0
SYMATTR Value2 AC 69
SYMATTR InstName V8
SYMATTR Value ""
SYMBOL voltage -880 624 R0
WINDOW 123 24 124 Left 2
WINDOW 39 0 0 Left 0
SYMATTR Value2 AC 15
SYMATTR InstName V9
SYMATTR Value ""
SYMBOL voltage -880 800 R0
WINDOW 123 24 124 Left 2
WINDOW 39 0 0 Left 0
SYMATTR Value2 AC 50
SYMATTR InstName V10
SYMATTR Value ""
SYMBOL res 2064 2480 R0
SYMATTR InstName R2
SYMATTR Value 1Meg
SYMBOL res -592 2128 R90
WINDOW 0 0 56 VBottom 2
WINDOW 3 32 56 VTop 2
SYMATTR InstName R8
SYMATTR Value 7.5k
SYMBOL res -576 2528 R90
WINDOW 0 0 56 VBottom 2
WINDOW 3 32 56 VTop 2
SYMATTR InstName R9
SYMATTR Value 4.5k
SYMBOL res -576 2752 R90
WINDOW 0 0 56 VBottom 2
WINDOW 3 32 56 VTop 2
SYMATTR InstName R10
SYMATTR Value 9.51k
SYMBOL res -576 2976 R90
WINDOW 0 0 56 VBottom 2
WINDOW 3 32 56 VTop 2
SYMATTR InstName R11
SYMATTR Value 6.344
SYMBOL res -576 2336 R90
WINDOW 0 0 56 VBottom 2
WINDOW 3 32 56 VTop 2
SYMATTR InstName R12
SYMATTR Value 7.5K
SYMBOL 5_way_SuperSwitch -128 2560 R0
WINDOW 39 -106 -456 Bottom 2
SYMATTR SpiceLine POS=Switch_Pos
SYMATTR InstName X5
SYMBOL 4PDT_OnOn 256 2544 R0
WINDOW 39 2 -432 Bottom 2
SYMATTR SpiceLine POS=SPLIT_POS
SYMATTR InstName X6
SYMBOL 4PDT_OnOn 672 2544 R0
WINDOW 39 0 -423 Bottom 2
SYMATTR SpiceLine POS=SERPAR_POS
SYMATTR InstName X7
SYMBOL 2pdt_onon 1040 2544 R0
WINDOW 39 -7 -407 Bottom 2
SYMATTR SpiceLine POS=PHASE_POS
SYMATTR InstName X8
SYMBOL voltage -864 2192 R0
WINDOW 123 24 124 Left 2
WINDOW 39 0 0 Left 0
SYMATTR Value2 AC 0.2
SYMATTR InstName V1
SYMATTR Value ""
SYMBOL voltage -864 2336 R0
WINDOW 123 24 124 Left 2
WINDOW 39 0 0 Left 0
SYMATTR Value2 AC 0.2
SYMATTR InstName V2
SYMATTR Value ""
SYMBOL voltage -864 2560 R0
WINDOW 123 24 124 Left 2
WINDOW 39 0 0 Left 0
SYMATTR Value2 AC 0.2
SYMATTR InstName V3
SYMATTR Value ""
SYMBOL voltage -864 2800 R0
WINDOW 123 24 124 Left 2
WINDOW 39 0 0 Left 0
SYMATTR Value2 AC 0.2
SYMATTR InstName V4
SYMATTR Value ""
SYMBOL voltage -864 2976 R0
WINDOW 123 24 124 Left 2
WINDOW 39 0 0 Left 0
SYMATTR Value2 AC 0.2
SYMATTR InstName V5
SYMATTR Value ""
SYMBOL A500K 1680 2256 R0
WINDOW 39 0 -28 Bottom 2
SYMATTR SpiceLine x=VOL
SYMATTR InstName VolumeP
SYMBOL ind -704 2128 R90
WINDOW 0 5 56 VBottom 2
WINDOW 3 32 56 VTop 2
SYMATTR InstName L1
SYMATTR Value 2
SYMBOL ind -688 2336 R90
WINDOW 0 5 56 VBottom 2
WINDOW 3 32 56 VTop 2
SYMATTR InstName L2
SYMATTR Value 2
SYMBOL ind -672 2528 R90
WINDOW 0 5 56 VBottom 2
WINDOW 3 32 56 VTop 2
SYMATTR InstName L3
SYMATTR Value 2.2
SYMBOL ind -688 2752 R90
WINDOW 0 5 56 VBottom 2
WINDOW 3 32 56 VTop 2
SYMATTR InstName L4
SYMATTR Value 2.76
SYMBOL ind -672 2976 R90
WINDOW 0 5 56 VBottom 2
WINDOW 3 32 56 VTop 2
SYMATTR InstName L5
SYMATTR Value 1.84
SYMBOL cap -592 2768 R0
SYMATTR InstName C2
SYMATTR Value 72
SYMBOL cap -592 2992 R0
SYMATTR InstName C3
SYMATTR Value 48p
SYMBOL cap -592 2544 R0
SYMATTR InstName C4
SYMATTR Value 120p
SYMBOL cap -608 2352 R0
SYMATTR InstName C5
SYMATTR Value 60p
SYMBOL cap -608 2144 R0
SYMATTR InstName C6
SYMATTR Value 60p
SYMBOL A500K 48 3456 R0
WINDOW 0 -4 -34 Bottom 2
WINDOW 39 -3 4 Bottom 2
SYMATTR InstName ToneBridgeP
SYMATTR SpiceLine x=TONE
SYMBOL cap 320 3504 R90
WINDOW 0 0 32 VBottom 2
WINDOW 3 32 32 VTop 2
SYMATTR InstName C7
SYMATTR Value {CAP}
SYMBOL A500K -336 1616 R0
WINDOW 0 -4 -34 Bottom 2
WINDOW 39 -3 4 Bottom 2
SYMATTR InstName ToneNeckP
SYMATTR SpiceLine x=TONE
SYMBOL cap -64 1664 R90
WINDOW 0 0 32 VBottom 2
WINDOW 3 32 32 VTop 2
SYMATTR InstName C1
SYMATTR Value {CAP}
SYMBOL res 192 4608 R90
WINDOW 0 0 56 VBottom 2
WINDOW 3 32 56 VTop 2
SYMATTR InstName R13
SYMATTR Value 6k
SYMBOL res 192 4976 R90
WINDOW 0 0 56 VBottom 2
WINDOW 3 32 56 VTop 2
SYMATTR InstName R15
SYMATTR Value 4.5k
SYMBOL voltage -80 4672 R0
WINDOW 123 24 124 Left 2
WINDOW 39 0 0 Left 0
SYMATTR Value2 AC 0.4
SYMATTR InstName V11
SYMATTR Value ""
SYMBOL voltage -96 5024 R0
WINDOW 123 24 124 Left 2
WINDOW 39 0 0 Left 0
SYMATTR Value2 AC 0.2
SYMATTR InstName V14
SYMATTR Value ""
SYMBOL ind 80 4608 R90
WINDOW 0 5 56 VBottom 2
WINDOW 3 32 56 VTop 2
SYMATTR InstName L6
SYMATTR Value 2
SYMBOL ind 80 4976 R90
WINDOW 0 5 56 VBottom 2
WINDOW 3 32 56 VTop 2
SYMATTR InstName L9
SYMATTR Value 2.7
SYMBOL res 944 4800 R0
SYMATTR InstName R14
SYMATTR Value 1Meg
SYMBOL res 208 3968 R90
WINDOW 0 0 56 VBottom 2
WINDOW 3 32 56 VTop 2
SYMATTR InstName R16
SYMATTR Value 4.5k
SYMBOL res 208 4336 R90
WINDOW 0 0 56 VBottom 2
WINDOW 3 32 56 VTop 2
SYMATTR InstName R17
SYMATTR Value 4.5k
SYMBOL voltage -64 4032 R0
WINDOW 123 24 124 Left 2
WINDOW 39 0 0 Left 0
SYMATTR Value2 AC 1
SYMATTR InstName V12
SYMATTR Value ""
SYMBOL voltage -80 4384 R0
WINDOW 123 24 124 Left 2
WINDOW 39 0 0 Left 0
SYMATTR Value2 AC 0.2
SYMATTR InstName V13
SYMATTR Value ""
SYMBOL ind 96 3968 R90
WINDOW 0 5 56 VBottom 2
WINDOW 3 32 56 VTop 2
SYMATTR InstName L7
SYMATTR Value -2
SYMBOL ind 96 4336 R90
WINDOW 0 5 56 VBottom 2
WINDOW 3 32 56 VTop 2
SYMATTR InstName L8
SYMATTR Value 2
SYMBOL cap 192 3984 R0
SYMATTR InstName C10
SYMATTR Value 120p
SYMBOL res 960 4160 R0
SYMATTR InstName R18
SYMATTR Value 1Meg
SYMBOL res 1504 4592 R90
WINDOW 0 0 56 VBottom 2
WINDOW 3 32 56 VTop 2
SYMATTR InstName R19
SYMATTR Value 6k
SYMBOL res 1504 4960 R90
WINDOW 0 0 56 VBottom 2
WINDOW 3 32 56 VTop 2
SYMATTR InstName R20
SYMATTR Value 4.5k
SYMBOL voltage 1232 4656 R0
WINDOW 123 24 124 Left 2
WINDOW 39 0 0 Left 0
SYMATTR Value2 AC 0.4
SYMATTR InstName V15
SYMATTR Value ""
SYMBOL voltage 1216 5008 R0
WINDOW 123 24 124 Left 2
WINDOW 39 0 0 Left 0
SYMATTR Value2 AC 0.2
SYMATTR InstName V16
SYMATTR Value ""
SYMBOL ind 1392 4592 R90
WINDOW 0 5 56 VBottom 2
WINDOW 3 32 56 VTop 2
SYMATTR InstName L10
SYMATTR Value 2
SYMBOL ind 1392 4960 R90
WINDOW 0 5 56 VBottom 2
WINDOW 3 32 56 VTop 2
SYMATTR InstName L11
SYMATTR Value 2.7
SYMBOL res 2256 4784 R0
SYMATTR InstName R21
SYMATTR Value 1Meg
SYMBOL res 1488 3952 R90
WINDOW 0 0 56 VBottom 2
WINDOW 3 32 56 VTop 2
SYMATTR InstName R22
SYMATTR Value 6k
SYMBOL res 1488 4320 R90
WINDOW 0 0 56 VBottom 2
WINDOW 3 32 56 VTop 2
SYMATTR InstName R23
SYMATTR Value 4.5k
SYMBOL voltage 1216 4016 R0
WINDOW 123 24 124 Left 2
WINDOW 39 0 0 Left 0
SYMATTR Value2 AC 0.4
SYMATTR InstName V17
SYMATTR Value ""
SYMBOL voltage 1200 4368 R0
WINDOW 123 24 124 Left 2
WINDOW 39 0 0 Left 0
SYMATTR Value2 AC 0.2
SYMATTR InstName V18
SYMATTR Value ""
SYMBOL ind 1376 3952 R90
WINDOW 0 5 56 VBottom 2
WINDOW 3 32 56 VTop 2
SYMATTR InstName L12
SYMATTR Value 2
SYMBOL ind 1376 4320 R90
WINDOW 0 5 56 VBottom 2
WINDOW 3 32 56 VTop 2
SYMATTR InstName L13
SYMATTR Value 2.7
SYMBOL res 2240 4144 R0
SYMATTR InstName R24
SYMATTR Value 1Meg
SYMBOL cap 192 4352 R0
SYMATTR InstName C8
SYMATTR Value 120p
SYMBOL cap 176 4624 R0
SYMATTR InstName C9
SYMATTR Value 120p
SYMBOL cap 176 4992 R0
SYMATTR InstName C11
SYMATTR Value 120p
SYMBOL cap 1488 4976 R0
SYMATTR InstName C12
SYMATTR Value 120p
SYMBOL cap 1488 4608 R0
SYMATTR InstName C13
SYMATTR Value 120p
SYMBOL cap 1472 4336 R0
SYMATTR InstName C14
SYMATTR Value 120p
SYMBOL cap 1472 3968 R0
SYMATTR InstName C15
SYMATTR Value 120p
SYMBOL cap 2160 2496 R0
SYMATTR InstName C16
SYMATTR Value 320p
TEXT 2424 1472 Left 4 ;1\nn-n-n + (ser Br NHot) +\nn-n-u + (ser Br SHot) +\nn-u-n + (par Br NHot) +\nn-u-u + (par Br SHot) +\nu-n-n + (sin Br NHot) +\nu-n-u + (sin Br SHot) +\nu-u-n + (sin Br NHot) +\nu-u-u + (sin Br SHot) +
TEXT 2424 1952 Left 4 ;2\nn-n-n + (ser Br NHot & Mid) +\nn-n-u + (ser Br SHot & Mid) +\nn-u-n + (par Br NHot & Mid) +\nn-u-u + (par Br SHot & Mid) +\nu-n-n + (sin Br NHot & Mid) +\nu-n-u + (sin Br SHot & Mid) +\nu-u-n + (sin Br NHot & Mid) +\nu-u-u + (sin Br SHot & Mid) +
TEXT 2424 2416 Left 4 ;3\nn-n-n + (ser Br NHot & ser Nk NHot) +\nn-n-u + (ser Br SHot & ser Nk NHot) +\nn-u-n + (par Br NHot & par Nk NHot) +\nn-u-u + (par Br SHot & par Nk NHot) +\nu-n-n + (sin Br NHot & sin Nk NHot) +\nu-n-u + (sin Br SHot & sin Nk NHot) +\nu-u-n + (sin Br NHot & sin Nk NHot) +\nu-u-u + (sin Br SHot & sin Nk NHot) +
TEXT 2424 2880 Left 4 ;4\nn-n-n + (ser Nk NHot & Mid) +\nn-n-u + (ser Nk NHot & Mid) +\nn-u-n + (par Nk NHot & Mid) +\nn-u-u + (par Nk NHot & Mid) +\nu-n-n + (sin Nk NHot & Mid) +\nu-n-u + (sin Nk NHot & Mid [& Br SHot AC analizde gözlemlenmedi]) +\nu-u-n + (sin Nk NHot & Mid) +\nu-u-u + (sin Nk NHot & Mid [& Br SHot AC analizde gözlemlenmedi]) +
TEXT 2424 3344 Left 4 ;5\nn-n-n + (ser Nk NHot) +\nn-n-u + (ser Nk NHot) +\nn-u-n + (par Nk NHot) +\nn-u-u + (par Nk NHot) +\nu-n-n + (sin Nk NHot) +\nu-n-u + (sin Nk NHot [& sin Br SHot? AC analizde gözlemlenmedi]) +\nu-u-n + (sin Nk NHot) +\nu-u-u + (sin Nk NHot [& sin Br SHot? AC analizde gözlemlenmedi]) +
TEXT 1344 1464 Left 4 !.param VOL=1\n.step param TONE 0 1 0.1
TEXT -816 1696 Left 2 !.ac oct 100 1 48000
TEXT -568 576 Left 2 ;Red
TEXT -568 704 Left 2 ;Black
TEXT -560 800 Left 2 ;White
TEXT -560 872 Left 2 ;Green
TEXT -600 -56 Left 2 ;Red
TEXT -600 96 Left 2 ;Black
TEXT -576 160 Left 2 ;White
TEXT -576 240 Left 2 ;Green
TEXT -552 2752 Left 2 ;Red
TEXT -552 2880 Left 2 ;Black
TEXT -544 2976 Left 2 ;White
TEXT -544 3048 Left 2 ;Green
TEXT -584 2120 Left 2 ;Red
TEXT -584 2272 Left 2 ;Black
TEXT -560 2336 Left 2 ;White
TEXT -560 2416 Left 2 ;Green
TEXT 1360 1608 Left 3 !.options gshunt = 1e-16
TEXT 512 1608 Left 5 !.param PHASE_POS=-1
TEXT 520 1528 Left 5 !.param SERPAR_POS=-1
TEXT 520 1448 Left 5 !.param SPLIT_POS=-1
TEXT 528 1352 Left 5 !.param Switch_Pos=1
TEXT -328 1416 Left 4 !.param CAP=0.033u
TEXT 216 4976 Left 2 ;Red
TEXT 216 5104 Left 2 ;Black
TEXT 200 4600 Left 2 ;Red
TEXT 200 4752 Left 2 ;Black
TEXT 224 4816 Left 2 ;White
TEXT 232 4336 Left 2 ;Red
TEXT 232 4464 Left 2 ;Black
TEXT 216 3960 Left 2 ;Red
TEXT 216 4112 Left 2 ;Black
TEXT 240 4176 Left 2 ;White
TEXT 1528 4960 Left 2 ;Red
TEXT 1528 5088 Left 2 ;Black
TEXT 1512 4584 Left 2 ;Red
TEXT 1512 4736 Left 2 ;Black
TEXT 1536 4800 Left 2 ;White
TEXT 1512 4320 Left 2 ;Red
TEXT 1512 4448 Left 2 ;Black
TEXT 1496 3944 Left 2 ;Red
TEXT 1496 4096 Left 2 ;Black
TEXT 1520 4160 Left 2 ;White
