Version 4
SHEET 1 880 808
WIRE -224 336 -336 336
WIRE -224 368 -224 336
WIRE -224 512 -224 448
WIRE -48 512 -224 512
WIRE -224 544 -224 512
WIRE -224 736 -224 624
WIRE -224 736 -336 736
FLAG -48 512 L2
IOPIN -48 512 Out
FLAG -336 336 L1
IOPIN -336 336 Out
FLAG -336 736 L3
IOPIN -336 736 Out
SYMBOL res -240 352 R0
SYMATTR InstName R1
SYMATTR Value {Ra}
SYMBOL res -240 528 R0
SYMATTR InstName R2
SYMATTR Value {Rb}
TEXT -416 104 Left 2 !.param Ra=R*(1-(10**(a*(x-1))))+0.0000001\n.param Rb=R*(10**(a*(x-1)))+0.0000001\n.param x=1\n.param R=250k\n.param a=2
