Version 4
SHEET 1 880 680
WIRE 144 272 48 272
WIRE -16 288 -112 288
WIRE -16 336 -16 288
WIRE 128 400 128 336
WIRE 192 400 128 400
FLAG 144 272 L2
IOPIN 144 272 Out
FLAG -112 288 L1
IOPIN -112 288 Out
FLAG 192 400 L3
IOPIN 192 400 Out
SYMBOL Base_AxxxK 48 272 R0
WINDOW 39 -12 102 Center 2
SYMATTR InstName X1
SYMATTR SpiceLine R=300k, w={w}
