Version 4
SHEET 1 880 680
WIRE 160 112 48 112
WIRE 160 144 160 112
WIRE 160 288 160 224
WIRE 336 288 160 288
WIRE 160 320 160 288
WIRE 160 512 160 400
WIRE 160 512 48 512
FLAG 336 288 L2
IOPIN 336 288 Out
FLAG 48 112 L1
IOPIN 48 112 Out
FLAG 48 512 L3
IOPIN 48 512 Out
SYMBOL res 144 128 R0
SYMATTR InstName R1
SYMATTR Value {Ra}
SYMBOL res 144 304 R0
SYMATTR InstName R2
SYMATTR Value {Rb}
TEXT -32 -120 Left 2 !.param Ra=R*(1-(10**(a*(x-1))))+0.0000001\n.param Rb=R*(10**(a*(x-1)))+0.0000001\n.param x=1\n.param R=300k\n.param a=2
