Version 4
SHEET 1 880 680
WIRE 144 16 32 16
WIRE 144 48 144 16
WIRE 144 192 144 128
WIRE 320 192 144 192
WIRE 144 224 144 192
WIRE 144 416 144 304
WIRE 144 416 32 416
FLAG 320 192 L2
IOPIN 320 192 Out
FLAG 32 16 L1
IOPIN 32 16 Out
FLAG 32 416 L3
IOPIN 32 416 Out
SYMBOL res 128 32 R0
SYMATTR InstName R1
SYMATTR Value {Ra}
SYMBOL res 128 208 R0
SYMATTR InstName R2
SYMATTR Value {Rb}
TEXT -48 -216 Left 2 !.param Ra=R*(1-(10**(a*(x-1))))+0.0000001\n.param Rb=R*(10**(a*(x-1)))+0.0000001\n.param x=1\n.param R=500k\n.param a=2
